"""
 Authors: Shirong Bai
 Address: Dept. of Chemistry and BioChemistry, University of Colorado at Boulder, Boulder, CO 80309


"""

units(length='cm', time='s', quantity='mol', act_energy='cal/mol')

ideal_gas(name='gas',
          elements="X O",
          species="""AB   O    A    B    A2   B2   OA2  OB2""",
          reactions='all',
          initial_state=state(temperature=300.0, pressure=OneAtm))

#-------------------------------------------------------------------------------
# Element data
#-------------------------------------------------------------------------------

element(symbol=u'X', atomic_mass=1.0)
element(symbol=u'O', atomic_mass=1.0)
#-------------------------------------------------------------------------------
# Species data
#-------------------------------------------------------------------------------

species(name=u'AB',
        atoms='X:1',
        thermo=(NASA([300.00, 1000.00],
                     [ 2.50000000E+00,  0.00000000E+00,  0.00000000E+00,
                       0.00000000E+00,  0.00000000E+00,  2.54716300E+04,
                      -4.60117600E-01]),
                NASA([1000.00, 5000.00],
                     [ 2.50000000E+00,  0.00000000E+00,  0.00000000E+00,
                       0.00000000E+00,  0.00000000E+00,  2.54716300E+04,
                      -4.60117600E-01])),
        note=u'120186')

species(name=u'O',
        atoms='O:1',
        thermo=(NASA([300.00, 1000.00],
                     [ 2.50000000E+00,  0.00000000E+00,  0.00000000E+00,
                       0.00000000E+00,  0.00000000E+00,  2.54716300E+04,
                      -4.60117600E-01]),
                NASA([1000.00, 5000.00],
                     [ 2.50000000E+00,  0.00000000E+00,  0.00000000E+00,
                       0.00000000E+00,  0.00000000E+00,  2.54716300E+04,
                      -4.60117600E-01])),
        note=u'120186')

species(name=u'A',
        atoms='X:1',
        thermo=(NASA([300.00, 1000.00],
                     [ 2.50000000E+00,  0.00000000E+00,  0.00000000E+00,
                       0.00000000E+00,  0.00000000E+00,  2.54716300E+04,
                      -4.60117600E-01]),
                NASA([1000.00, 5000.00],
                     [ 2.50000000E+00,  0.00000000E+00,  0.00000000E+00,
                       0.00000000E+00,  0.00000000E+00,  2.54716300E+04,
                      -4.60117600E-01])),
        note=u'120186')

species(name=u'B',
        atoms='X:1',
        thermo=(NASA([300.00, 1000.00],
                     [ 2.50000000E+00,  0.00000000E+00,  0.00000000E+00,
                       0.00000000E+00,  0.00000000E+00,  2.54716300E+04,
                      -4.60117600E-01]),
                NASA([1000.00, 5000.00],
                     [ 2.50000000E+00,  0.00000000E+00,  0.00000000E+00,
                       0.00000000E+00,  0.00000000E+00,  2.54716300E+04,
                      -4.60117600E-01])),
        note=u'120186')

species(name=u'A2',
        atoms='X:2',
        thermo=(NASA([300.00, 1000.00],
                     [ 2.50000000E+00,  0.00000000E+00,  0.00000000E+00,
                       0.00000000E+00,  0.00000000E+00,  2.54716300E+04,
                      -4.60117600E-01]),
                NASA([1000.00, 5000.00],
                     [ 2.50000000E+00,  0.00000000E+00,  0.00000000E+00,
                       0.00000000E+00,  0.00000000E+00,  2.54716300E+04,
                      -4.60117600E-01])),
        note=u'120186')

species(name=u'B2',
        atoms='X:2',
        thermo=(NASA([300.00, 1000.00],
                     [ 2.50000000E+00,  0.00000000E+00,  0.00000000E+00,
                       0.00000000E+00,  0.00000000E+00,  2.54716300E+04,
                      -4.60117600E-01]),
                NASA([1000.00, 5000.00],
                     [ 2.50000000E+00,  0.00000000E+00,  0.00000000E+00,
                       0.00000000E+00,  0.00000000E+00,  2.54716300E+04,
                      -4.60117600E-01])),
        note=u'120186')

species(name=u'OA2',
        atoms='X:2 O:1',
        thermo=(NASA([300.00, 1000.00],
                     [ 2.50000000E+00,  0.00000000E+00,  0.00000000E+00,
                       0.00000000E+00,  0.00000000E+00,  2.54716300E+04,
                      -4.60117600E-01]),
                NASA([1000.00, 5000.00],
                     [ 2.50000000E+00,  0.00000000E+00,  0.00000000E+00,
                       0.00000000E+00,  0.00000000E+00,  2.54716300E+04,
                      -4.60117600E-01])),
        note=u'120186')

species(name=u'OB2',
        atoms='X:2 O:1',
        thermo=(NASA([300.00, 1000.00],
                     [ 2.50000000E+00,  0.00000000E+00,  0.00000000E+00,
                       0.00000000E+00,  0.00000000E+00,  2.54716300E+04,
                      -4.60117600E-01]),
                NASA([1000.00, 5000.00],
                     [ 2.50000000E+00,  0.00000000E+00,  0.00000000E+00,
                       0.00000000E+00,  0.00000000E+00,  2.54716300E+04,
                      -4.60117600E-01])),
        note=u'120186')

#-------------------------------------------------------------------------------
# Reaction data
#-------------------------------------------------------------------------------
#  ************ Reactions **********************
#  Dimerization and reverse process
#  https://journals.aps.org/prl/abstract/10.1103/PhysRevLett.109.248107
#  http://pubs.acs.org/doi/abs/10.1021/jp045523y
#  Cell volume Vc=2.0e-15L=2.0e-18m^3 or 7.0e-16L

# Reaction 1
reaction('2 A => A2', [5.000000e+00, 0.0, 0.0])

# Reaction 2
reaction('2 B => B2', [5.000000e+00, 0.0, 0.0])

# Reaction 3
reaction('A2 => 2 A', [5.000000e+00, 0.0, 0.0])

# Reaction 4
reaction('B2 => 2 B', [5.000000e+00, 0.0, 0.0])
#  Binding to DNA, which is O. When A2 is bounded, will promote A's transcription
#  and repress B's transcription, and vice versa.

# Reaction 5
reaction('O + A2 => OA2', [5.000000e+00, 0.0, 0.0])

# Reaction 6
reaction('O + B2 => OB2', [5.000000e+00, 0.0, 0.0])

# Reaction 7
reaction('OA2 => O + A2', [1.000000e+00, 0.0, 0.0])

# Reaction 8
reaction('OB2 => O + B2', [1.000000e+00, 0.0, 0.0])
#  Transcription, here AB is the bulk, nearly constant source pool

# Reaction 9
reaction('O + AB => O + A', [1.000000e+00, 0.0, 0.0])

# Reaction 10
reaction('O + AB => O + B', [1.000000e+00, 0.0, 0.0])

# Reaction 11
reaction('OA2 + AB => OA2 + A', [1.000000e+00, 0.0, 0.0])

# Reaction 12
reaction('OB2 + AB => OB2 + B', [1.000000e+00, 0.0, 0.0])
#  Sink of proteins, termination, go back to bulk source pool

# Reaction 13
reaction('A => AB', [2.500000e-01, 0.0, 0.0])

# Reaction 14
reaction('B => AB', [2.500000e-01, 0.0, 0.0])
