!
ELEMENTS
C H N O AR HE
END
SPECIES
HE AR N2
H H2
HEG HCFG Halt
O O2
OH H2O HO2 H2O2
CO CO2
HCO CH2O
formyloxy        ! formyloxy
formylperoxy       ! formylperoxy
formylooh      ! formyl-hydroperoxide

C CH CH2(S)
CH2 CH3 CH4
CH3OO CH3OOH           
CH2OH CH3O CH3OH 
OCH2OOH     ! hydroperoxyl-methoxy
HOCH2OO     ! hydroxymethyl-peroxy
HOCH2OOH    ! hydroperoxyl-methanol
HOCH2O      ! hydroxymethoxy

C2H2 C2H3 C2H4 C2H5 C2H6

ketene HCCO ethynol     ! ketene, ketenyl, ethynol
acetaldehyde acetyl vinoxy  ! acetaldehyde, acetyl, vinoxy
acetylperoxy            ! acetylperoxy
acetyloxy               ! acetyloxy 
ethoxy CH3CH2OO CH3CH2OOH ! ethoxy, ethylperoxy, ethyl-hydroperoxide
CH2CH2OOH                ! QOOH for ethylperoxy
ethanol CH2CH2OH CH3CHOH ! ethanol, CH2CH2OH, CH3CHOH

oxirane             ! oxirane (ethylene-oxide)
oxiranyl             ! oxiranyl
ethenol              ! vinyl-alcohol
!C2H3OOH              ! vinyl-hydroperoxide

C3H6 npropyl ipropyl C3H8
allyl propen1yl propen2yl ! allyl, CH3CHCH, CH3CCH2

acetone
CH3OCH3 ! dimethyl-ether
CH3OCH2 ! methoxy-methyl

acrolein              ! acrolein (2-propanal)
CH2CHCO               ! vinylcarbonyl (acrolein radical)
CH3CHCO              ! methyl-ketene

allyloxy !CH2CCH2OH      ! allyloxy, CH2=C*-CH2-OH 
allyl-alcohol        ! allyl-alcohol
propanal  propionyl      ! propanal, propionyl

!CH3CHOHCH2   !2-hydroxy-prop-1-yl (C3H6 + OH addition to second carbon)

npropyloxy ipropyloxy        ! n-propyloxy, i-propyloxy
npropyloo npropylooh     ! n-propylperoxy, n-propyl-hydroperoxide
ipropyloo ipropylooh     ! i-propylperoxy, i-propyl-hydroperoxide



propen1ol  !propenol from Curran
propen2ol  !
!----------------------------------------------------------------
! the species CH3CHCH2OH has been replaced by CH3CHOHCH2
!CH3CHCH2OH               ! HO-CH2-*CH-CH3 (n-propanol radical)
!HOC3H6O2  ! replaced with CH3CHCH2OH + O2 --> products

! THESE THREE SPECIES STILL USE THE CURRAN THERMO:
CH3CO3H              ! acetyl-hydroperoxide
!CH2CCH2OH            ! allyl-alcohol radical
O2C2H4OH             ! OOCH2CH2OH (i.e. O2 + ethanol radical)
!----------------------------------------------------------------

!----------------------------------------------------------------
!- here are the species added by CFG
    propoxide   ! propylene-oxide 
	QOOH_1      ! 3-hydroperoxyl-1-propyl
	QOOH_2      ! 3-hydroperoxyl-2-propyl
	QOOH_3      ! 2-hydroperoxyl-1-propyl

	well_1      ! 3-hydroperoxyl-n-propylperoxy
	well_2      ! 1-methyl-2-hydroperoxyl-ethylperoxy
	well_3      ! 2-hydroperoxyl-n-propylperoxy
!	well_4      ! 1,3-dihydroperoxyl-2-propyl
	well_5      ! 2,3-dihydroperoxyl-n-propyl

	prod_1      ! 2-formyl-ethyl-hydroperoxide
    prod_2      ! allyl-hydroperoxide
	prod_3      ! oxiranyl-methyl-hydroperoxide
	prod_4      ! acetyl-methyl-hydroperoxide
	prod_5      ! 1-formyl-ethyl-hydroperoxide
	prod_6      ! 1-propene-hydroperoxide
	prod_7      ! 2-propene-hydroperoxide

	frag_1      ! 2-formyl-ethoxy
	frag_3      ! oxiranyl-methoxy
	frag_4      ! acetyl-methoxy
	frag_5      ! 1-formyl-ethoxy

    !allyloxy
    propen1oxy
    propen2oxy

!    H
!    H2O
!    CH3
!    HCO
!    CH2O    
!    C2H3
!    C2H4
!    acetyl
!    vinoxy
!    acetaldehyde
    glyoxal
!    acrolein
!    allyl
    vinoxylmethyl
    formylethyl
!    C3H8

END


REACTIONS	CAL/MOL	MOLES

!              H2/O2 MECHANISM OF LI ET AL. IJCK 36:565 (2004)
!
!*********************************************************************************

!H2-O2 CHAIN REACTIONS

! HESSLER, J. PHYS. CHEM. A, 102:4517 (1998)
H+O2 = O+OH                                 3.547E+15 -0.406 1.6599E+04

! SUTHERLAND ET AL., 21ST SYMPOSIUM, P. 929 (1986)
O+H2 = H+OH                                 0.508E+05  2.67  0.629E+04

! MICHAEL AND SUTHERLAND, J. PHYS. CHEM. 92:3853 (1988)
H2+OH = H2O+H                               0.216E+09  1.51  0.343E+04

! SUTHERLAND ET AL., 23RD SYMPOSIUM, P. 51 (1990)
O+H2O = OH+OH                               2.970E+06  2.02  1.340E+04


!H2-O2 DISSOCIATION REACTIONS

! TSANG AND HAMPSON, J. PHYS. CHEM. REF. DATA, 15:1087 (1986)
H2+M = H+H+M                                4.577E+19 -1.40  1.0438E+05
   H2/2.5/ H2O/12/
   CO/1.9/ CO2/3.8/
   AR/0.0/ HE/0.0/

! TSANG AND HAMPSON, J. PHYS. CHEM. REF. DATA, 15:1087 (1986)
H2+AR = H+H+AR                              5.840E+18 -1.10  1.0438E+05
H2+HE = H+H+HE                              5.840E+18 -1.10  1.0438E+05

! TSANG AND HAMPSON, J. PHYS. CHEM. REF. DATA, 15:1087 (1986)
O+O+M = O2+M                                6.165E+15 -0.50  0.000E+00
   H2/2.5/ H2O/12/
   AR/0.0/  HE/0.0/
   CO/1.9/ CO2/3.8/

! TSANG AND HAMPSON, J. PHYS. CHEM. REF. DATA, 15:1087 (1986)
O+O+AR = O2+AR                              1.886E+13  0.00 -1.788E+03
O+O+HE = O2+HE                              1.886E+13  0.00 -1.788E+03

! TSANG AND HAMPSON, J. PHYS. CHEM. REF. DATA, 15:1087 (1986)
O+H+M = OH+M                                4.714E+18 -1.00  0.000E+00
   H2/2.5/ H2O/12/
   AR/0.75/ HE/0.75/
   CO/1.9/ CO2/3.8/

! TSANG AND HAMPSON, J. PHYS. CHEM. REF. DATA, 15:1087 (1986)
! H+OH+M = H2O+M             2.212E+22 -2.00  0.000E+00
H+OH+M = H2O+M                              3.800E+22 -2.00  0.000E+00
   H2/2.5/ H2O/12/
   AR/0.38/ HE/0.38/
   CO/1.9/ CO2/3.8/

!FORMATION AND CONSUMPTION OF HO2

! COBOS ET AL., J. PHYS. CHEM. 89:342 (1985) FOR KINF
! MICHAEL, ET AL., J. PHYS. CHEM. A, 106:5297 (2002) FOR K0

!=================================================================================
! MAIN BATH GAS IS N2 (COMMENT THIS REACTION OTHERWISE)
!
H+O2(+M) = HO2(+M)                          1.475E+12  0.60  0.000E+00
   LOW/6.366E+20 -1.72  5.248E+02/
   TROE/0.8  1E-30  1E+30/
   H2/2.0/ H2O/11./ O2/0.78/ CO/1.9/ CO2/3.8/


!=================================================================================
! MAIN BATH GAS IS AR OR HE (COMMENT THIS REACTION OTHERWISE)
!
!H+O2(+M) = HO2(+M)                         1.475E+12  0.60  0.000E+00
!   LOW/9.042E+19 -1.50  4.922E+02/
!   TROE/0.5 1E-30  1E+30/
!   H2/3.0/ H2O/16/ O2/1.1/ CO/2.7/ CO2/5.4/ HE/1.2/

! TSANG AND HAMPSON, J. PHYS. CHEM. REF. DATA, 15:1087 (1986) [MODIFIED]
HO2+H = H2+O2                               1.66E+13   0.00  0.823E+03

! TSANG AND HAMPSON, J. PHYS. CHEM. REF. DATA, 15:1087 (1986) [MODIFIED]
HO2+H = OH+OH                               7.079E+13  0.00  2.950E+02

! BAULCH ET AL., J. PHYS. CHEM. REF DATA, 21:411 (1992)
HO2+O = O2+OH                               3.250E+13  0.00  0.000E+00

! KEYSER, J. PHYS. CHEM. 92:1193 (1988)
HO2+OH = H2O+O2                             2.890E+13  0.00 -4.970E+02


!FORMATION AND CONSUMPTION OF H2O2

! HIPPLER ET AL., J. CHEM. PHYS. 93:1755 (1990)
HO2+HO2 = H2O2+O2                           4.200E+14  0.00  1.1982E+04
   DUPLICATE
HO2+HO2 = H2O2+O2                           1.300E+11  0.00 -1.6293E+03
   DUPLICATE

! BROUWER ET AL., J. CHEM. PHYS. 86:6171 (1987) FOR KINF
! WARNATZ, J. IN COMBUSTION CHEMISTRY (1984) FOR K0
H2O2(+M) = OH+OH(+M)                        2.951E+14  0.00  4.843E+04
   LOW/1.202E+17  0.00  4.550E+04/
   TROE/0.5 1E-30 1E+30/
   H2/2.5/ H2O/12/
   CO/1.9/ CO2/3.8/
   AR/0.64/ HE/0.64/

! TSANG AND HAMPSON, J. PHYS. CHEM. REF. DATA, 15:1087 (1986)
H2O2+H = H2O+OH                             2.410E+13  0.00  3.970E+03
H2O2+H = HO2+H2                             4.820E+13  0.00  7.950E+03
H2O2+O = OH+HO2                             9.550E+06  2.00  3.970E+03

! HIPPLER AND TROE, J. CHEM. PHYS. LETT. 192:333 (1992)
H2O2+OH = HO2+H2O                           1.000E+12  0.00  0.000E+00
   DUPLICATE
H2O2+OH = HO2+H2O                           5.800E+14  0.00  9.557E+03
   DUPLICATE


!****************************  CO/HCO REACTIONS  *********************************
!WKM CONSTRUCTED BY MCHAOS
! TROE, 15TH SYMPOSIUM
CO+O(+M) = CO2(+M)                          1.800E+10  0.00  2.384E+03
! FIT OF WESTMORELAND, AICHE J., 1986, REL. TO N2 - TIM ADJUSTED FROM MTA'S
! RATE CONSTANT, WHICH WAS REL TO AR.
   LOW/1.550E+24 -2.79  4.191E+03/
   H2/2.5/ H2O/12/ AR/0.87/ CO/1.9/ CO2/3.8/

! TSANG AND HAMPSON, JPC REF. DATA, 15:1087 (1986)
CO+O2 = CO2+O                               2.530E+12  0.00  4.770E+04

! THIS RATE CONSTANT IS MODIFIED PER AN UPDATED VALUE FOR HO2+HO2=H2O2+OH
CO+HO2 = CO2+OH                             3.010E+13  0.00  2.300E+04

! LEAST SQUARES FIT TO AVAILABLE EXPERIMENTAL RESULTS
CO+OH = CO2+H                               2.229E+05  1.89 -1.1587E+03

! LEAST SQUARES FIT TO AVAILABLE EXPERIMENTAL RESULTS
HCO+M = H+CO+M                              4.7485E+11 0.659 1.4874E+04
   H2/2.5/ H2O/6/ CO/1.9/ CO2/3.8/

! TIMONEN ET AL., JPC, 92:651 (1988)
HCO+O2 = CO+HO2                             7.580E+12  0.00  4.100E+02 

! TIMONEN ET AL., JPC, 91:692 (1987)
HCO+H = CO+H2                               7.230E+13  0.00  0.000E+00

! TSANG AND HAMPSON, JPC REF. DATA, 15:1087 (1986)
HCO+O = CO+OH                               3.020E+13  0.00  0.000E+00  
HCO+OH = CO+H2O                             3.020E+13  0.00  0.000E+00

! ALL REACTIONS FROM TSANG AND HAMPSON, JPC REF. DATA, 15:1087 (1986)
HCO+O = CO2+H                               3.000E+13  0.00  0.000E+00
HCO+HO2 = CO2+OH+H                          3.000E+13  0.00  0.000E+00
!HCO+CH3 = CO+CH4                            1.200E+14  0.00  0.000E+00
! ^^ APPROACHES COLLISION LIMIT CHANGED TO THE VALUE OF S.A. MULENKO, !REV ROUM PHYS 1987
HCO+CH3 = CO+CH4                            2.650E+13  0.00  0.000E+00
HCO+HCO = H2+CO+CO                          3.000E+12  0.00  0.000E+00

! GLARBORG ET AL'S PAPER (C&F, 132:629, 2003)
HCO+HCO = CH2O+CO                           3.000E+13  0.00  0.000E+00

!HEALY ET AL C&F, 155: 451– 461 (2008) 

!DIRECTION CHANGE
!formylperoxy = HCO+O2 1.396E+29 -4.55 4.630E+04
!REV/ 1.200E+11 0.00 -1.100E+03 /
HCO+O2 = formylperoxy 1.2E+11 0.0 -1100.0

CH2O+formylperoxy = HCO+formylooh 1.990E+12 0.00 1.166E+04
!REV/ 3.744E+03 1.95 7.145E+03 /
formylooh = formyloxy+OH 5.010E+14 0.00 4.015E+04
!REV/ 2.871E+06 2.09 -7.012E+03 /

!DIRECTION CHANGE
!formyloxy+M = H+CO2+M 5.315E+14 -0.35 1.758E+04
!REV/ 7.500E+13 0.00 2.900E+04 /
H+CO2+M = formyloxy+M 7.500E+13 0.00 2.900E+04 


!*****************************  CH2O REACTIONS  **********************************

! FRIEDRICHS ET AL., IJCK 2004, 36, 157
CH2O + M = HCO + H + M                      3.300E+39 -6.30  9.990E+04
   H2/2.5/ H2O/12.0/ CO/1.9/ CO2/3.8/ AR/0.7/

CH2O + M = CO + H2 + M                      3.100E+45 -8.00  9.751E+04
   H2/2.5/ H2O/12.0/ CO/1.9/ CO2/3.8/ AR/0.7/

! IRDAM ET AL., IJCK 1993, 25, 285
CH2O + H = HCO + H2                         5.740E+07  1.90  2.7486E+03

! TSANG AND HAMPSON, JPC REF. DATA, 15:1087 (1986)
CH2O + O = HCO + OH                         1.810E+13  0.00  3.080E+03

! TSANG AND HAMPSON, JPC REF. DATA, 15:1087 (1986)
CH2O + OH = HCO + H2O                       3.430E+09  1.18 -4.470E+02

! reduced by factor of 4 to test if secondary chemistry is important to t = OQOOH peak
!CH2O + OH = HCO + H2O                       0.8575E+09  1.18 -4.470E+02

! HIDAKA ET AL. COMBUST FLAME 92:365 (1993)
CH2O + O2 = HCO + HO2                       1.230E+06  3.00  5.200E+04

! EITENEER ET AL, JPC A.,1998, 102, 5196
CH2O + HO2 = HCO + H2O2                     4.110E+04  2.50  1.021E+04

!FISCHER ET AL. IJCK, 32:713 (2000)
CH2O+CH3 = HCO+CH4                          3.636E-06  5.42  9.980E+02

!HEALY ET AL C&F, 155: 451– 461 (2008)

!DIRECTION CHANGE
!OCH2OOH = CH2O+HO2 1.278E+18 -1.80 1.046E+04
!REV/ 1.500E+11 0.00 1.190E+04 /
CH2O+HO2 = OCH2OOH 1.500E+11 0.00 1.190E+04 

OCH2OOH = HOCH2OO 3.000E+11 0.00 8.600E+03
!REV/ 4.241E+08 0.95 2.620E+04 /
HOCH2OO+HO2 = HOCH2OOH+O2 3.500E+10 0.00 -3.275E+03
!REV/ 1.046E+14 -0.84 3.487E+04 /

!DIRECTION CHANGE
!HOCH2OOH = HOCH2O+OH 1.023E+21 -1.92 4.249E+04
!REV/ 1.000E+13 0.00 0.000E+00 /
HOCH2O+OH = HOCH2OOH 1.000E+13 0.00 0.000E+00 

!******************************  CH4 REACTIONS  **********************************

! SLAGLE ET AL., JPC, 91:4375 (1987)
CH3+O = CH2O+H                              8.430E+13  0.00  0.000E+00

! TSANG AND HAMPSON, JPC REF. DATA, 15:1087 (1986)
CH3+O2 = CH3O+O                             1.990E+18 -1.57  2.923E+04

!WKM NOT SURE WHAT NUMBER I WILL USE YET
! SCIRE ET AL. IJCK, 33:75 (2001)
!CH3+O2 = CH2O+OH                            3.740E+11  0.00  1.4640E+04
!CH3+O2 = CH2O+OH                             4.110E+11 0.00 1.384E+04 ! HENRY
!WKM
!FROM KLIPPENSTEIN. MAY NOT BE THE FINAL NUMBER BUT SHOULD BE PRETTY CLOSE
!CH3+O2 = CH2O+OH                           3.510E-01   3.524  7.380E+03

! JIM SCIRE (PH.D. THESIS, 2002) ONLY FOR 1000 K
! CH3+HO2 = CH3O+OH          1.480E+13  0.00  0.000E+00

! SCIRE ET AL. IJCK, 33:75 (2001)
! CH3+HO2 = CH4+O2                            3.160E+12  0.00  0.000E+00

!ZHU AND LIN (2001, J.PHYS.CHEM. A 105)
! CH3+HO2 = CH3O+OH          6.14244E+10  0.76 -2.325E+03  !1000-3000K
! CH3+HO2 = CH3O+OH          1.78853E+14 -0.24 -3.6167E+02 !300-1000K

! LI ET AL. (IJCK, SUBMITTED) BY MODIFING ZHU & LIN'S TO MATCH JIM'S VALUE AT 1000K
! CH3+HO2 = CH3O+OH                           2.410E+10  0.76 -2.325E+03


! CFG: replaced CH3 + HO2 with value from Jasper, Klippenstein, Harding, 2009
! 7.679E-12 * (T/298)^0.2688 * exp[ + 346 / T] cm^3/molecule/s with Ea in Kelvin.  after unit conversions...
CH3 + HO2 = CH3O + OH           1.00E12 0.2688  -687.12
! 6.426E-14 * (T/298)^2.228 * exp[ + 1521 / T] after unit conversions
CH3 + HO2 = CH4 + O2          1.19E5  2.228  -3020.53
 
! --- USED IN LI ET AL. (IJCK, SUBMITTED) ---
! WALTER ET AL. 23RD SYMP. (INT.) COMBUST. P107 (1990)
! CH3+CH3(+M) = C2H6(+M)     9.214E+16 -1.17  6.358E+02
!    LOW/1.135E+36 -5.246  1.705E+03/
!    TROE/0.405 1120. 69.6 1.E+15/
!    H2/2/ H2O/5/ CO/2/ CO2/3/

! WANG ET AL., JPC A 107:11414 (2003)
CH3+CH3(+M) = C2H6(+M)                      2.277E+15 -0.69  1.7486E+02
   LOW/8.054E+31 -3.75  9.816E+02/
   TROE/0.0 570.0 0.0 1.E+30/
   H2O/5/ CO/2/ CO2/3/

! GRI 1.2
CH3+H(+M) = CH4(+M)                         1.270E+16 -0.630 3.830E+02 
   LOW  /  2.477E+33   -4.760   2440.00/
   TROE/  0.7830   74.00  2941.00  6964.00 /
   H2/2.0/ H2O/6.0/ CH4/2.0/ CO/1.5/ CO2/2.0/ C2H6/3.0/ AR/0.7/

! SCHATZ ET AL., JPC, 88:221 (1984)
CH4+H = CH3+H2                              5.470E+07  1.97  1.121E+04

! KLEMM ET AL. 18TH SYMP. (INT) COMBUST. P785 (1981)
CH4+O = CH3+OH                              3.150E+12  0.50  1.029E+04

! FELDER AND MADRONICH, CST, 50:135 (1986)
CH4+OH = CH3+H2O                            5.720E+06  1.96  2.639E+03

! TSANG AND HAMPSON, JPC REF. DATA, 15:1087 (1986)
CH4+HO2 = CH3+H2O2                          1.810E+11  0.00  1.858E+04

! CFG replaced with the values from Aguilera-Iparraguirre, JPCA, 2008, 112, 30, 7047
!CH4+HO2 = CH3+H2O2                  1.13E+1 3.74    20994.6

!HEALY ET AL C&F, 155: 451 461 (2008) 
!FROM TSANG
CH3+CH3OH = CH4+CH3O 1.440E+01 3.10 6.935E+03

!HEALY ET AL C&F, 155: 451 461 (2008) 
!FROM GLAUDE,P.A.,MELIUS,C.,PITZ,W.J.,AND WESTBROOK,C.K.,
!"CHEMICAL KINETICS OF ORGANOPHOSPHORUS COMPOUNDS", PROCEEDINGS OF THE
!DIVIDED BY 2
CH3O+CH3 = CH2O+CH4 1.200E+13 0.00 0.000E+00

!HEALY ET AL C&F, 155: 451 461 (2008) 
!FROM HOYERMANN ET AL, 18TH SYMPOSIUM
CH3O+H = CH2O+H2 2.000E+13 0.00 0.000E+00

!HEALY ET AL C&F, 155: 451 461 (2008) 
!FROM CURRAN AND PITZ RATE EXPRESSIONS FOR CH3O2 SYSTEM.
CH3+O2(+M) = CH3OO(+M) 1.006E+08 1.63 0.000E+00
!!REV/ 7.282E+13 0.42 3.333E+04 /
LOW / 3.8160E+31 -4.8900E+00 3.4320E+03 / 
TROE / 4.5000E-02 8.8010E+02 2.5000E+09 1.7860E+09 / !TROE FALL-OFF REACTION

!HEALY ET AL C&F, 155: 451 461 (2008) 
!FROM TSANG, W., HAMPSON, R.F., J. PHYS. CHEM. REF. DATA, 15, 1087 (1986).
CH3OO+CH2O = CH3OOH+HCO 1.990E+12 0.00 1.166E+04

!HEALY ET AL C&F, 155: 451 461 (2008) 
!FROM TSANG, W., HAMPSON, R.F., J. PHYS. CHEM. REF. DATA, 15, 1087 (1986).
CH4+CH3OO = CH3+CH3OOH 1.810E+11 0.00 1.848E+04

!HEALY ET AL C&F, 155: 451 461 (2008) 
!FROM TSANG, W. CHEMICAL KINETIC DATA BASE FOR COMBUSTION CHEMISTRY, PART 2,
! METHANOL, J. PHYS. CHEM. REF. DATA, VOL. 16
CH3OH+CH3OO = CH2OH+CH3OOH 1.810E+12 0.00 1.371E+04

!HEALY ET AL C&F, 155: 451 461 (2008) 
!FROM KEIFFER, M.; MISCAMPBELL, A.J.; PILLING, M.J.
!J. CHEM. SOC. FARADAY TRANS. 2: 84, 505 (1988)
CH3OO+CH3 = CH3O+CH3O 5.080E+12 0.00 -1.411E+03

!HEALY ET AL C&F, 155: 451 461 (2008) 
!FROM LIGHTFOOT,P.D.; COX,R.A.; CROWLEY,J.N.; DESTRIAU,M.; 
!HAYMAN,G.D.; JENKIN,M.E.; MOORTGAT,G.K.; ZABEL,F.
!ORGANIC PEROXY RADICALS: KINETICS, SPECTROSCOPY AND TROPOSPHERIC CHEMISTRY
!ATMOS. ENVIRON. PART A: 26, 1805-1961 (1992)
CH3OO+HO2 = CH3OOH+O2 2.470E+11 0.00 -1.570E+03

!HEALY ET AL C&F, 155: 451 461 (2008) 
!FROM LIGHTFOOT ET AL. J. CHEM. SOC. FARA TRANS. 1991, 87(19), 3213--3220.
CH3OO+CH3OO = CH2O+CH3OH+O2 3.110E+14 -1.61 -1.051E+03

!HEALY ET AL C&F, 155: 451 461 (2008) 
!FROM LIGHTFOOT ET AL. J. CHEM. SOC. FARA TRANS. 1991, 87(19), 3213--3220.
CH3OO+CH3OO = O2+CH3O+CH3O 1.400E+16 -1.61 1.860E+03

!HEALY ET AL C&F, 155: 451 461 (2008) 
!FROM ANALOGY TO HCO+C2H3
!(TSANG & HAMPSON, METHANE, J. PHYS. CHEM. REF. DATA, VOL 15, 1986)
CH3OO+H = CH3O+OH 9.600E+13 0.00 0.000E+00

!HEALY ET AL C&F, 155: 451 461 (2008) 
!FROM ANALOGY TO HCO+C2H3
!(TSANG & HAMPSON, METHANE, J. PHYS. CHEM. REF. DATA, VOL 15, 1986)
CH3OO+O = CH3O+O2 3.600E+13 0.00 0.000E+00

!HEALY ET AL C&F, 155: 451 461 (2008) 
!FROM ANALOGY TO HCO+C2H3
!(TSANG & HAMPSON, METHANE, J. PHYS. CHEM. REF. DATA, VOL 15, 1986)
CH3OO+OH = CH3OH+O2 6.000E+13 0.00 0.000E+00

!HEALY ET AL C&F, 155: 451 461 (2008) 
CH3OOH = CH3O+OH 6.310E+14 0.00 4.230E+04

!*******************************  CH2OH REACTIONS  *******************************

! CRIBB ET AL. COMBUST FLAME, 88:186 (1992)
CH2OH+M = CH2O+H+M                          1.000E+14  0.00  2.510E+04

! TSANG, JPC REF. DATA, 16:471 (1987)
CH2OH+H = CH2O+H2                           6.000E+12  0.00  0.000E+00

! TSANG AND HAMPSON, JPC REF. DATA, 15:1087 (1986)
CH2OH+H = CH3+OH                            9.635E+13  0.00  0.000E+00

! TSANG, JPC REF. DATA, 16:471 (1987)
CH2OH+O = CH2O+OH                           4.200E+13  0.00  0.000E+00

! TSANG, JPC REF. DATA, 16:471 (1987)
CH2OH+OH = CH2O+H2O                         2.400E+13  0.00  0.000E+00

! GROTHEER ET AL., JPC, 92:4028 (1988)
! USED IN NORTON AND DRYER, IJCK, 22:219 (1990)
! HOWEVER, THEY ONLY USED THE HIGH TEMPERATURE PORTION OF THE FIT. THE HIGH
! TEMPERATURE PORTION ALONE IS 75% OF THE TOTAL AT 700K, 92.8% AT 1000 K
CH2OH+O2 = CH2O+HO2                         2.410E+14  0.00  5.017E+03
   DUPLICATE
CH2OH+O2 = CH2O+HO2                         1.510E+15 -1.00  0.000E+00
   DUPLICATE

! TSANG, JPC REF. DATA, 16:471 (1987)
CH2OH+HO2 = CH2O+H2O2                       1.200E+13  0.00  0.000E+00

! LI ET AL. (IJCK,SUBMITTED) STUDY BY KEEPING THE BRANCHING RATIO IF USING FRIEDRICHS ET AL. (2004) BELOW
CH2OH+HCO = CH3OH+CO                        1.000E+13  0.00  0.000E+0

! FRIEDRICHS ET AL. (IJCK, 2004, 36, 157)
CH2OH+HCO = CH2O+CH2O                       1.500E+13  0.00  0.000E+00

!*** ETHYLENE GLYCOL FORMATION

! TSANG, JPC REF. DATA, 16:471 (1987)
2CH2OH = CH3OH+CH2O                         3.000E+12  0.00  0.000E+00

! TSANG, JPC REF. DATA, 16:471 (1987)
CH2OH+CH3O = CH3OH+CH2O                     2.400E+13  0.00  0.000E+00

!HEALY ET AL C&F, 155: 451 461 (2008) 
!FROM CURRAN ESTIMATE
CH2OH+HO2 = HOCH2O+OH 1.000E+13 0.00 0.000E+00

!******************************  CH3O REACTIONS  *********************************

! PAGE ET AL., JPC, 93:4404 (1989)
CH3O+M = CH2O+H+M                           8.300E+17 -1.20  1.550E+04 !MC LIN

! WANTUCK ET AL., JPC, 91:4653 (1987)
CH3O+H = CH3+OH                             3.200E+13  0.00  0.000E+00

! TSANG AND HAMPSON, JPC REF. DATA, 15:1087 (1986)
CH3O+O = CH2O+OH                            6.000E+12  0.00  0.000E+00

! TSANG AND HAMPSON, JPC REF. DATA, 15:1087 (1986)
CH3O+OH = CH2O+H2O                          1.800E+13  0.00  0.000E+00


! WANTUCK ET AL., JPC, 91:4653 (1987)
CH3O+O2 = CH2O+HO2                          9.033E+13  0.00  1.198E+04
   DUPLICATE
CH3O+O2 = CH2O+HO2                          2.200E+10  0.00  1.748E+03
   DUPLICATE

! TSANG AND HAMPSON, JPC REF. DATA, 15:1087 (1986)
CH3O+HO2 = CH2O+H2O2                        3.000E+11  0.00  0.000E+00

! TSANG AND HAMPSON, JPC REF. DATA, 15:1087 (1986)
CH3O+CO = CH3+CO2                           1.600E+13  0.00  1.180E+04

! TSANG AND HAMPSON, JPC REF. DATA, 15:1087 (1986)
CH3O+HCO = CH3OH+CO                         9.000E+13  0.00  0.000E+00

! TSANG AND HAMPSON, JPC REF. DATA, 15:1087 (1986)
2CH3O = CH3OH+CH2O                          6.000E+13  0.00  0.000E+00


!******************************  CH3OH REACTIONS  ********************************

! GRI-3.0
OH+CH3(+M) = CH3OH(+M)                      2.790E+18 -1.43  1.330E+03
   LOW  /  4.000E+36   -5.920   3140.00/
   TROE/   .4120  195.0  5900.00  6394.00/
   H2/2.00/ H2O/6.00/ CH4/2.00/ CO/1.50/ CO2/2.00/ C2H6/3.00/

H+CH2OH(+M) = CH3OH(+M)                     1.055E+12  0.50  8.600E+01
   LOW  /  4.360E+31   -4.650   5080.00/
   TROE/   .600  100.00  90000.0  10000.0 /
   H2/2.00/ H2O/6.00/ CH4/2.00/ CO/1.50/ CO2/2.00/ C2H6/3.00/

H+CH3O(+M) = CH3OH(+M)                      2.430E+12  0.515 5.000E+01
   LOW  /  4.660E+41   -7.440   14080.0/
   TROE/   .700  100.00  90000.0 10000.00 /
   H2/2.00/ H2O/6.00/ CH4/2.00/ CO/1.50/ CO2/2.00/ C2H6/3.00/

! WARNATZ, IN GARDINER, JR. COMBUSTION CHEMISTRY (1984)
CH3OH+H = CH2OH+H2                          3.200E+13  0.00  6.095E+03
CH3OH+H = CH3O+H2                           8.000E+12  0.00  6.095E+03 

! TSANG, JPC REF. DATA, 16:471 (1987)
CH3OH+O = CH2OH+OH                          3.880E+05  2.50  3.080E+03

! BOTT AND COHEN, IJCK, 23:1075 (1991) {356}
CH3OH+OH = CH3O+H2O                         1.000E+06  2.10  4.967E+02
CH3OH+OH = CH2OH+H2O                        7.100E+06  1.80 -5.960E+02

! TSANG, JPC REF. DATA, 16:471 (1987)
CH3OH+O2 = CH2OH+HO2                        2.050E+13  0.00  4.490E+04

! TSANG, JPC REF. DATA, 16:471 (1987)
CH3OH+HCO = CH2OH+CH2O                      9.635E+03  2.90  1.311E+04

! CATHONNET ET AL., J. CHIM. PHYS., 79:475 (1982)
CH3OH+HO2 = CH2OH+H2O2                      3.980E+13  0.00  1.940E+04
!
!CH3OH+HO2 = CH2OH+H2O2      7.000E+13  0.00  1.940E+04 ! 10 ATM
!
!CH3OH+HO2 = CH2OH+H2O2      5.500E+08  0.00  0.000E+00 ! 5 ATM
! FIG 4.2 (949K)
!CH3OH+HO2 = CH2OH+H2O2      3.000E+09  0.00  0.000E+00
! FIG 4.1 (1043K)
!CH3OH+HO2 = CH2OH+H2O2      5.500E+08  0.00  0.000E+00
! FIG 4.3 (907K)
!CH3OH+HO2 = CH2OH+H2O2      9.000E+08  0.00  0.000E+00
! FIG 4.4 (911K)
!CH3OH+HO2 = CH2OH+H2O2      1.000E+09  0.00  0.000E+00
! FIG 4.5 (860K) & FIG 4.6 (858K) & FIG 4.7(857K)
!CH3OH+HO2 = CH2OH+H2O2      5.500E+08  0.00  0.000E+00
! FIG 4.8 (809K) & FIG4.9 (810K)
!CH3OH+HO2 = CH2OH+H2O2      4.500E+08  0.00  0.000E+00
! FIG 4.10 (811K)
!CH3OH+HO2 = CH2OH+H2O2      3.500E+08  0.00  0.000E+00
! FIG 4.11 (783K) & FIG 4.12
!CH3OH+HO2 = CH2OH+H2O2      2.500E+08  0.00  0.000E+00
! FIG 4.13
!CH3OH+HO2 = CH2OH+H2O2      3.000E+08  0.00  0.000E+00
! %COMBINED (PRESENT FIT)
!CH3OH+HO2 = CH2OH+H2O2      1.550E+13  0.00  1.695E+04
! PW
!CH3OH+HO2 = CH2OH+H2O2      7.760E+12  0.00  1.582E+04

! TSANG, JPC REF. DATA, 16:471 (1987)
CH3OH+CH3 = CH2OH+CH4                       3.190E+01  3.17  7.172E+03

! TSANG, JPC REF. DATA, 16:471 (1987)
CH3O+CH3OH = CH3OH+CH2OH                    3.000E+11  0.00  4.060E+03

! GRI-1.2
CH3+CH3 = H+C2H5                            4.990E+12  0.10  1.060E+04
CH4+CH2 = CH3+CH3                           2.460E+06  2.00  8.270E+03

CH3+OH = CH2+H2O                            5.600E+07  1.60  5.420E+03

CH3+CH2 = C2H4+H                            4.000E+13  0.00  0.000E+00




!*************************** CH/CH2/CH2(S) REACTIONS  *******************************
! GRI-1.2
!CH4+CH2(S) = CH3+CH3                        1.600E+13  0.00 -5.700E+02
!CH3+OH = CH2(S)+H2O                         2.501E+13  0.00  0.000E+00
!CH3+CH2(S) = C2H4+H                         1.200E+13  0.00 -5.700E+02
!CH3O+H = CH2(S)+H2O                         1.600E+13  0.00  0.000E+00

! GRI-3.0
!CH2(S)+H2O(+M) = CH3OH(+M)                  4.820E+17 -1.16  1.145E+03
!   LOW  /  1.880E+38   -6.360   5040.00/
!   TROE/   .6027  208.00  3922.00  10180.0 /
!   H2/2.00/ H2O/6.00/ CH4/2.00/ CO/1.50/ CO2/2.00/ C2H6/3.00/

! GRI-1.2
CH2+H(+M) = CH3(+M)                         2.500E+16 -0.80  0.000E+00
   LOW  /  3.200E+27   -3.140   1230.00/
   TROE/  0.6800   78.00  1995.00  5590.00 /
   H2/2.0/ H2O/6.0/ CH4/2.0/ CO/1.5/ CO2/2.0/ C2H6/3.0/ AR/0.7/
CH2+O = HCO+H                               8.000E+13  0.00  0.000E+00
CH2+OH = CH2O+H                             2.000E+13  0.00  0.000E+00
CH2+H2 = H+CH3                              5.000E+05  2.00  7.230E+03
CH2+O2 = HCO+OH                             1.320E+13  0.00  1.500E+03
CH2+HO2 = CH2O+OH                           2.000E+13  0.00  0.000E+00
CH2+CO(+M) = ketene(+M)                      8.100E+11  0.50  4.510E+03
   LOW  /  2.690E+33   -5.110   7095.00/
   TROE/  0.5907  275.00  1226.00  5185.00 /
   H2/2.0/ H2O/6.0/ CH4/2.0/ CO/1.5/ CO2/2.0/ C2H6/3.0/ AR/0.7/
CH2+CH2 = C2H2+H2                           3.200E+13  0.00  0.000E+00

!! CFG:  get rid of all CH2(S), CH, and C reactions

!
! REACTIONS OF CH2(S)
!
! N2 ASSUMED = AR
CH2(S)+M = CH2+M                            9.000E+12  0.00  6.000E+02
   H2O/0.0/ CO/0.0/ CO2/0.0/ AR/0.0/
CH2(S)+H2O = CH2+H2O                        3.000E+13  0.00  0.000E+00
CH2(S)+CO = CH2+CO                          9.000E+12  0.00  0.000E+00
CH2(S)+CO2 = CH2+CO2                        7.000E+12  0.00  0.000E+00
CH2(S)+AR = CH2+AR                          9.000E+12  0.00  6.000E+02
!!CH2(S)+H = CH+H2                            3.000E+13  0.00  0.000E+00
CH2(S)+O = CO+H2                            1.500E+13  0.00  0.000E+00
CH2(S)+O = HCO+H                            1.500E+13  0.00  0.000E+00
CH2(S)+OH = CH2O+H                          3.000E+13  0.00  0.000E+00
CH2(S)+H2 = CH3+H                           7.000E+13  0.00  0.000E+00
CH2(S)+O2 = H+OH+CO                         2.800E+13  0.00  0.000E+00
CH2(S)+O2 = CO+H2O                          1.200E+13  0.00  0.000E+00
CH2(S)+CO2 = CH2O+CO                        1.400E+13  0.00  0.000E+00

!HEALY ET AL C&F, 155: 451 461 (2008) 
!FROM MILLER, J.A. AND BOWMAN, C.T., MECHANISM AND MODELING
!OF NITROGEN CHEMISTRY IN COMBUSTION, WSS/CI, FALL 1988.
CH2(S)+C2H6 = CH3+C2H5 1.200E+14 0.00 0.000E+00

! USED ORIGINALLY IN JUAN LI'S PHD THESIS, UPDATED ABOVE IN THE CH3OH SECTION
! GRI-3.0
! CH2(S)+H2O(+M) = CH3OH(+M)  2.000E+13  0.00  0.000E+00
!    LOW  /  2.700E+38   -6.300   3100.00/
!    TROE/  0.1507  134.00  2383.00  7265.00 /
!    H2/2.0/ H2O/6.0/ CH4/2.0/ CO/1.5/ CO2/2.0/ C2H6/3.0/
!
!WKM

!HEALY ET AL C&F, 155: 451 461 (2008) 
CH2(S)+ketene = C2H4+CO 1.600E+14 0.00 0.000E+00

!HEALY ET AL C&F, 155: 451 461 (2008) 
H+HCCO = CH2(S)+CO 1.100E+13 0.00 0.000E+00


!!!!!!!!!!!!!!!!!! CH REACTIONS!!!!!!!!!!!!!!!!!!!!!!!!!!!!!


!HEALY ET AL C&F, 155: 451 461 (2008) 
!FROM GRI MECH 3.0
CH2(S)+H<=>CH+H2 3.000E+13 0.00 0.000E+00

!HEALY ET AL C&F, 155: 451 461 (2008) 
!FROM GRI MECH 3.0
CH2+H<=>CH+H2 1.000E+18 -1.56 0.000E+00
DUP

!HEALY ET AL C&F, 155: 451 461 (2008) 
!FROM GRI MECH 3.0
CH2+OH<=>CH+H2O 1.130E+07 2.00 3.000E+03

!HEALY ET AL C&F, 155: 451 461 (2008) 
!FROM GRI MECH 3.0
CH+O2<=>HCO+O 3.300E+13 0.00 0.000E+00

!HEALY ET AL C&F, 155: 451 461 (2008) 
!FROM GRI MECH 3.0
CH+H<=>C+H2 5.000E+13 0.00 0.000E+00

!HEALY ET AL C&F, 155: 451 461 (2008) 
!FROM GRI MECH 3.0
CH+O<=>CO+H 5.700E+13 0.00 0.000E+00

!HEALY ET AL C&F, 155: 451 461 (2008) 
!FROM GRI MECH 3.0
CH+OH<=>HCO+H 3.000E+13 0.00 0.000E+00

!HEALY ET AL C&F, 155: 451 461 (2008) 
!FROM GRI MECH 3.0
CH2+H<=>CH+H2 2.700E+11 0.67 2.570E+04
DUP

!HEALY ET AL C&F, 155: 451 461 (2008) 
!FROM GRI MECH 3.0
CH+H2O<=>H+CH2O 1.713E+13 0.00 -7.550E+02

!HEALY ET AL C&F, 155: 451 461 (2008) 
!FROM GRI MECH 3.0
CH+CO2<=>HCO+CO 1.700E+12 0.00 6.850E+02

!HEALY ET AL C&F, 155: 451 461 (2008) 
!FROM FRANK, P.; BHASKARAN, K.A.; JUST, TH.
!ACETYLENE OXIDATION: THE REACTION C2H2 + O AT HIGH TEMPERATURES
!SYMP. INT. COMBUST. PROC. 21, 885 (1988)
HCCO+M = CH+CO+M 6.500E+15 0.00 5.882E+04

!HEALY ET AL C&F, 155: 451 461 (2008) 
!FROM SMITH ET AL., GRI MECH 2.11
CH+CH2O = H+ketene 9.460E+13 0.00 -5.150E+02

!HEALY ET AL C&F, 155: 451 461 (2008) 
!FROM SMITH ET AL., GRI MECH 2.11
CH+HCCO = CO+C2H2 5.000E+13 0.00 0.000E+00

!HEALY ET AL C&F, 155: 451 461 (2008) 
!FROM BUTLER, FLEMING, GOSS, LIN, ACS SYMP. SER. 134 (1980)
CH+CH4 = C2H4+H 6.000E+13 0.00 0.000E+00

!HEALY ET AL C&F, 155: 451 461 (2008) 
!FROM GLAUDE,P.A.,MELIUS,C.,PITZ,W.J.,AND WESTBROOK,C.K.,
!"CHEMICAL KINETICS OF ORGANOPHOSPHORUS COMPOUNDS", PROCEEDINGS OF THE
C2H6+CH = C2H5+CH2 1.100E+14 0.00 -2.600E+02


!!!!!!!!!!!!!!!!!!!!!!!!!!!!!!!!!!!!!!!!!!!!!!!!!!!!!!!!!!!!!
! CFG:  NO HCOOH
!!!!!!!!!!!!!!!! HCOOH REACTIONS !!!!!!!!!!!!!!!!!!!!!!!!!!!!

!FORMIC ACID REACTIONS, FROM LI DME

!HOCH2O = HCOOH+H                            1.000E+14  0.00  1.490E+04
!CH2O+OH = HOCH2O                            4.500E+15 -1.11  0.000E+00
!HCOOH+M = CO+H2O+M                          2.300E+13  0.00  5.000E+04
!HCOOH+M = CO2+H2+M                          1.500E+16  0.00  5.700E+04
!HCOOH = HCO+OH                              4.593E+18 -0.46  1.083E+05
!HCOOH+OH = H2O+CO2+H                        2.620E+06  2.06  9.160E+02
!HCOOH+OH = H2O+CO+OH                        1.850E+07  1.51 -9.620E+02
!HCOOH+H = H2+CO2+H                          4.240E+06  2.10  4.868E+03
!HCOOH+H = H2+CO+OH                          6.030E+13 -0.35  2.988E+03
!HCOOH+CH3 = CH4+CO+OH                       3.900E-07  5.80  2.200E+03
!HCOOH+HO2 = H2O2+CO+OH                      1.000E+12  0.00  1.192E+04
!HCOOH+O = CO+OH+OH                          1.770E+18 -1.90  2.975E+03

!WKM